# File generated by Flopy version 3.3.2 on 01/31/2021 at 22:54:59.
BEGIN options
  READASARRAYS
END options

BEGIN period  1
  recharge
    CONSTANT       0.00100000
END period  1

