# File generated by Flopy version 3.3.2 on 02/04/2021 at 21:17:39.
BEGIN options
  COMPLEXITY  simple
END options

