# File generated by Flopy version 3.3.2 on 01/30/2021 at 22:22:49.
BEGIN options
  COMPLEXITY  simple
END options

